8
Lattice="5.084244657735405 0.0 0.0 0.0 5.084244657735405 0.0 0.0 0.0 5.084244657735405" Properties=species:S:1:pos:R:3:initial_charges:R:1:forces:R:3 energy=-2581.295843451286 free_energy=-2581.295843451286 pbc="T T T"
Li       0.00000000       0.00000000       0.00000000      -0.12000000       0.00000000       0.00000000       0.00000000
Li       2.54212233       2.54212233       0.00000000      -0.12000000       0.00000000       0.00000000       0.00000000
Li       2.54212233       0.00000000       2.54212233      -0.12000000       0.00000000       0.00000000       0.00000000
Li       0.00000000       2.54212233       2.54212233      -0.12000000       0.00000000       0.00000000       0.00000000
Cl       0.00000000       0.00000000       2.54212233       0.12000000       0.00000000       0.00000000       0.00000000
Cl       2.54212233       0.00000000       0.00000000       0.12000000       0.00000000       0.00000000       0.00000000
Cl       0.00000000       2.54212233       0.00000000       0.12000000       0.00000000       0.00000000       0.00000000
Cl       2.54212233       2.54212233       2.54212233       0.12000000       0.00000000       0.00000000       0.00000000
8
Lattice="5.084239895140529 0.0 0.0 0.0 5.084239895140529 0.0 0.0 0.0 5.084239895140529" Properties=species:S:1:pos:R:3:initial_charges:R:1:forces:R:3 energy=-2425.31079640359 free_energy=-2425.31079640359 pbc="T T T"
Li       0.74509536       4.87680291       0.97159824      -0.11000000      -2.50439538       1.63861598       0.56884012
Li       4.82667230       2.19084981       4.73296976      -0.29000000    -250.21195893     -11.83920681    -127.29564122
Li       4.91086731       1.15112275       1.83790188      -0.06000000       7.92800688       6.86302510      -3.88468748
Li       0.81388512       1.84705351       1.84354539      -0.06000000       6.01968501       4.13433106       3.46578176
Cl       0.36301473       2.21428816       5.03904100       0.47000000     238.37394280       7.02120451     122.52050512
Cl       1.69864455       3.56506901       0.47130904      -0.03000000    -122.53446313     238.69558009      17.42122089
Cl       3.72217203       0.42366971       2.19852702       0.22000000     -15.27494291     -10.20641540       5.06343364
Cl       2.20350957       2.64339801       0.40506139      -0.14000000     138.20412539    -236.30713453     -17.85945283
8
Lattice="5.084239895140529 0.0 0.0 0.0 5.084239895140529 0.0 0.0 0.0 5.084239895140529" Properties=species:S:1:pos:R:3:initial_charges:R:1:forces:R:3 energy=-2444.9555013697295 free_energy=-2444.9555013697295 pbc="T T T"
Li       0.99346048       4.80765724       1.29546433      -0.08000000      -0.33161214      -0.61494874       1.46895608
Li       0.50394986       2.07375977       4.61587972      -0.28000000      -1.75987178      85.07024688      44.15097886
Li       0.61620988       1.53483034       1.60316252       0.09000000    -309.64388833     -50.76447840      -3.77258610
Li       1.08518016       1.61536470       1.61068720       0.09000000     308.21221813      51.37247616       7.57841193
Cl       0.48401964       1.25763758       4.17660139       0.25000000      -6.26711358     -91.60294230     -49.35223134
Cl       1.41748608       3.05867872       0.62841205       0.03000000     -70.23854930      42.91469707     101.07115182
Cl       3.26814940       4.80175953       2.93136935       0.19000000      -0.11302107      -0.04843316      -0.57330587
Cl       2.09063944       2.67715736       4.77694844      -0.29000000      80.14183807     -36.32661777    -100.57137564
8
Lattice="5.084239895140529 0.0 0.0 0.0 5.084239895140529 0.0 0.0 0.0 5.084239895140529" Properties=species:S:1:pos:R:3:initial_charges:R:1:forces:R:3 energy=-2469.538850598634 free_energy=-2469.538850598634 pbc="T T T"
Li       1.24182559       4.73851158       1.61933041      -0.14000000       0.77427795      -2.48114258      -1.47020924
Li       1.26546731       1.95666972       4.49878967      -0.24000000     -30.26528681     -37.31175703       8.62867312
Li       1.40579233       1.91853792       1.36842317      -0.07000000      50.81655686     125.84410024      60.49439099
Li       1.35647520       1.38367589       1.37782901       0.03000000     -16.64998765    -207.41640138      10.08645159
Cl       0.60502455       0.30098700       3.31416178       0.14000000      -3.59202549       1.12807125       1.86031192
Cl       1.13632762       2.55228843       0.78551506       0.57000000     -38.88490270      87.20319986     -52.89652533
Cl       2.81412678       4.09560945       3.66421169      -0.26000000       9.25243380       9.16537033      -2.88576505
Cl       1.97776932       2.71091671       4.06459558      -0.03000000      28.54893455      23.86855903     -23.81732775
8
Lattice="5.084239895140529 0.0 0.0 0.0 5.084239895140529 0.0 0.0 0.0 5.084239895140529" Properties=species:S:1:pos:R:3:initial_charges:R:1:forces:R:3 energy=-2492.6857107372175 free_energy=-2492.6857107372175 pbc="T T T"
Li       1.49019071       4.66936592       1.94319649      -0.16000000      74.97725518      23.54251564     -49.67096894
Li       2.02698476       1.83957968       4.38169963      -0.15000000       2.03366547     -21.92813745      13.90512702
Li       2.19537479       2.30224551       1.13368381      -0.09000000      27.44279506       9.36370909       4.91438756
Li       1.62777024       1.15198708       1.14497082      -0.05000000      26.59277704     -38.12028516       8.44465284
Cl       0.72602946       4.42857632       2.45172216       0.33000000     -77.53222081     -19.69057425      48.55766481
Cl       0.85516915       2.04589813       0.94261808       0.37000000     -56.53497903      28.28653059     -11.46551419
Cl       2.36010416       3.38945937       4.39705403      -0.18000000      31.57620566      45.51716949      57.93285285
Cl       1.86489919       2.74467606       3.35224273      -0.07000000     -28.55549832     -26.97092795     -72.61820169
8
Lattice="5.084239895140529 0.0 0.0 0.0 5.084239895140529 0.0 0.0 0.0 5.084239895140529" Properties=species:S:1:pos:R:3:initial_charges:R:1:forces:R:3 energy=-2536.1789024630034 free_energy=-2536.1789024630034 pbc="T T T"
Li       1.73855583       4.60022026       2.26706257      -0.08000000       5.35849112       9.09163521       5.40483345
Li       2.78850221       1.72248963       4.26460958      -0.12000000       7.48431341      -7.86488039      -7.91559951
Li       2.98495724       2.68595309       0.89894446      -0.12000000      21.32722179       1.22915778      14.69161694
Li       1.89906529       0.92029826       0.91211264      -0.05000000      13.33164555      -7.07627805      -2.28198852
Cl       0.84703437       3.47192574       1.58928255      -0.04000000     -24.47618039      16.79410466     -10.86480216
Cl       0.57401068       1.53950784       1.09972109       0.18000000     -23.89090012      -9.53116324       1.65688033
Cl       1.90608154       2.68330929       0.04565647       0.34000000     -13.97456095       7.31854282     -18.29879188
Cl       1.75202907       2.77843542       2.63988988      -0.10000000      14.83996959      -9.96111905      17.60785162
8
Lattice="5.084239895140529 0.0 0.0 0.0 5.084239895140529 0.0 0.0 0.0 5.084239895140529" Properties=species:S:1:pos:R:3:initial_charges:R:1:forces:R:3 energy=-2289.4795838040363 free_energy=-2289.4795838040363 pbc="T T T"
Li       1.98692095       4.53107459       2.59092865      -0.03000000       0.57844139       2.48798685       2.12106009
Li       3.55001966       1.60539959       4.14751954      -0.05000000       0.32115418      -0.47869673      -1.10153284
Li       3.77453970       3.06966068       0.66420510      -0.05000000       0.51297930       1.28320699       0.57073811
Li       2.17036033       0.68860945       0.67925445      -0.04000000       8.54843413     -14.11516327      -0.85929507
Cl       0.96803928       2.51527516       0.72684294       0.12000000    -606.97516035     668.18705702     -98.47448212
Cl       0.29285222       1.03311755       1.25682410      -0.15000000     -22.93279755     -27.40621829      10.26643523
Cl       1.45205891       1.97715921       0.77849881       0.35000000     597.80733770    -656.29947105      29.41470109
Cl       1.63915894       2.81219477       1.92753703      -0.16000000      22.13961120      26.34129847      58.06237551
8
Lattice="5.084239895140529 0.0 0.0 0.0 5.084239895140529 0.0 0.0 0.0 5.084239895140529" Properties=species:S:1:pos:R:3:initial_charges:R:1:forces:R:3 energy=-2524.287818739502 free_energy=-2524.287818739502 pbc="T T T"
Li       2.23528607       4.46192893       2.91479473      -0.01000000       0.17158308      -0.59585264       0.53784958
Li       4.31153712       1.48830954       4.03042949       0.02000000      -0.55601726      -0.35895454      -0.99077152
Li       4.56412215       3.45336826       0.42946574       0.00000000      -0.45923013       0.86215003      -0.25939191
Li       2.44165537       0.45692064       0.44639626       0.01000000       3.94619058      -2.83308803      -0.24537297
Cl       1.08904419       1.55862458       4.94864322       0.10000000      -1.35805258      -0.18119335     -32.68794501
Cl       0.01169375       0.52672725       1.41392711      -0.11000000     -92.25190468     -69.80241050      -4.94551256
Cl       0.99803629       1.27100913       1.51134115      -0.04000000      81.61439395      46.84385975      32.83450252
Cl       1.52628882       2.84595412       1.21518418       0.02000000       8.89303677      26.06548929       5.75664213
8
Lattice="5.084239895140529 0.0 0.0 0.0 5.084239895140529 0.0 0.0 0.0 5.084239895140529" Properties=species:S:1:pos:R:3:initial_charges:R:1:forces:R:3 energy=-2526.394003524601 free_energy=-2526.394003524601 pbc="T T T"
Li       2.48365119       4.39278327       3.23866081      -0.07000000       1.30937697      -1.59952416      -0.98721980
Li       5.07305457       1.37121950       3.91333945      -0.06000000     -15.63356655      10.33962400      -0.74592948
Li       0.26946471       3.83707585       0.19472639      -0.06000000     -10.47169771       7.19550576      -4.71852580
Li       2.71295041       0.22523183       0.21353808      -0.06000000       1.70322240       0.04217972       1.58626266
Cl       1.21004910       0.60197400       4.08620360       0.28000000      17.49607573      -8.61086848      11.34919260
Cl       4.81477518       0.02033696       1.57103013      -0.10000000    -102.98767217     -66.72889810     -84.48291384
Cl       0.54401367       0.56485905       2.24418349      -0.14000000      97.52212340      66.85053647      74.31606746
Cl       1.41341869       2.87971348       0.50283133       0.22000000      11.06213793      -7.48855522       3.68306645
8
Lattice="5.084239895140529 0.0 0.0 0.0 5.084239895140529 0.0 0.0 0.0 5.084239895140529" Properties=species:S:1:pos:R:3:initial_charges:R:1:forces:R:3 energy=-2519.249140123428 free_energy=-2519.249140123428 pbc="T T T"
Li       2.73201631       4.32363761       3.56252689      -0.04000000      11.05981339      -5.01585511       0.26426030
Li       0.75033212       1.25412945       3.79624940      -0.10000000       0.34419204       5.42340068       2.60160519
Li       1.05904717       4.22078343       5.04422693      -0.05000000      -5.86619323      25.77344463       5.88749662
Li       2.98424545       5.07778291       5.06491978      -0.03000000       1.58177403       2.02127841       2.66390379
Cl       1.33105400       4.72956332       3.22376399       0.17000000      75.73924376     -11.26459662      10.69566779
Cl       4.53361671       4.59818656       1.72813314      -0.17000000     -21.41031599     -11.34567121     -40.35328260
Cl       0.08999105       4.94294887       2.97702583      -0.04000000     -66.50623953      22.86583780      19.67597064
Cl       1.30054857       2.91347283       4.87471837       0.27000000       5.05772553     -28.45783856      -1.43562173
8
Lattice="5.084239895140529 0.0 0.0 0.0 5.084239895140529 0.0 0.0 0.0 5.084239895140529" Properties=species:S:1:pos:R:3:initial_charges:R:1:forces:R:3 energy=-2550.099475822235 free_energy=-2550.099475822235 pbc="T T T"
Li       2.98038143       4.25449194       3.88639298      -0.03000000      -4.31651403      -5.74780525      -8.54007650
Li       1.51184958       1.13703941       3.67915936      -0.12000000      -0.31390676      -0.45600366      -1.87966307
Li       1.84862963       4.60449102       4.80948757      -0.02000000      -5.69037786       0.18962966       4.62998215
Li       3.25554049       4.84609410       4.83206160      -0.03000000       5.63114298       5.41778487       8.79473527
Cl       1.45205891       3.77291274       2.36132438       0.04000000       6.87399445       3.38406258      -9.63957329
Cl       4.25245825       4.09179627       1.88523615      -0.01000000      -5.61218804       0.27354404     -11.05301617
Cl       4.72020832       4.23679879       3.70986817       0.05000000      -0.05762022       6.27946824       7.23911964
Cl       1.18767844       2.94723218       4.16236552       0.12000000       3.48546946      -9.34068049      10.44849196
8
Lattice="5.084239895140529 0.0 0.0 0.0 5.084239895140529 0.0 0.0 0.0 5.084239895140529" Properties=species:S:1:pos:R:3:initial_charges:R:1:forces:R:3 energy=-2515.3746616537633 free_energy=-2515.3746616537633 pbc="T T T"
Li       3.22874655       4.18534628       4.21025906       0.02000000     -67.22473457     -57.68851166     -73.51934455
Li       2.27336703       1.01994937       3.56206931      -0.17000000      -1.43881555       4.56277866      -4.14127972
Li       2.63821208       4.98819860       4.57474822      -0.05000000     -24.30022489      11.62936185       8.98417878
Li       3.52683553       4.61440529       4.59920341       0.01000000      51.37330277      79.64933246      64.22883272
Cl       1.57306382       2.81626216       1.49888476      -0.04000000       0.07616790      -1.98205957      -5.62330292
Cl       3.97129978       3.58540597       2.04233917       0.06000000      -0.12798746       1.81584315      -1.81706931
Cl       4.26618570       3.53064871       4.44271051       0.31000000      38.86997153     -38.01401298       9.12570438
Cl       1.07480831       2.98099154       3.45001267      -0.13000000       2.77232027       0.02726783       2.76228114
8
Lattice="5.084239895140529 0.0 0.0 0.0 5.084239895140529 0.0 0.0 0.0 5.084239895140529" Properties=species:S:1:pos:R:3:initial_charges:R:1:forces:R:3 energy=-2482.6111549170387 free_energy=-2482.6111549170387 pbc="T T T"
Li       3.47711166       4.11620062       4.53412514       0.05000000    -265.64361212    -212.52019774     130.67330818
Li       3.03488448       0.90285932       3.44497927      -0.15000000      -4.55517282       6.76269885      -8.33775794
Li       3.42779454       0.28766629       4.34000886      -0.02000000      -0.79691008      14.03258277       6.71103485
Li       3.79813057       4.38271647       4.36634522       0.08000000     266.98424495     203.27277347    -134.47783612
Cl       1.69406873       1.85961158       0.63644515       0.07000000      -2.40663869      -4.70337352      -1.58575590
Cl       3.69014132       3.07901568       2.19944218      -0.13000000      -1.41984364       1.17672270       4.50354224
Cl       3.81216307       2.82449863       0.09131295       0.10000000       6.51390966      -9.40329765       0.75045976
Cl       0.96193819       3.01475089       2.73765981      -0.00000000       1.32402248       1.38209136       1.76300518
8
Lattice="5.084239895140529 0.0 0.0 0.0 5.084239895140529 0.0 0.0 0.0 5.084239895140529" Properties=species:S:1:pos:R:3:initial_charges:R:1:forces:R:3 energy=-2538.071441285446 free_energy=-2538.071441285446 pbc="T T T"
Li       3.72547678       4.04705496       4.85799122       0.00000000     -20.26327976      -6.71895256      42.49858922
Li       3.79640193       0.78576928       3.32788922       0.00000000     -14.60625914       4.59341258     -26.26480147
Li       4.21737699       0.67137388       4.10526950       0.06000000      15.09846676       3.30620521      26.34481831
Li       4.06942561       4.15102766       4.13348703       0.06000000      20.26397782      -1.85054070     -42.00810784
Cl       1.81507364       0.90296101       4.85824543       0.01000000      -2.83277873      -3.32443150      -3.38714122
Cl       3.40898285       2.57262539       2.35654519      -0.14000000       0.65088454       5.15766482      20.84523174
Cl       3.35814045       2.11834855       0.82415529      -0.18000000       1.64635012      -2.60356642     -17.93516590
Cl       0.84906806       3.04851024       2.02530696       0.19000000       0.04263866       1.44020858      -0.09342283
8
Lattice="5.084239895140529 0.0 0.0 0.0 5.084239895140529 0.0 0.0 0.0 5.084239895140529" Properties=species:S:1:pos:R:3:initial_charges:R:1:forces:R:3 energy=-2524.3660111952677 free_energy=-2524.3660111952677 pbc="T T T"
Li       3.97384190       3.97790929       0.09761741      -0.04000000      -1.41664210       0.75612982       5.18870549
Li       4.55791938       0.66867923       3.21079918       0.06000000     -14.34555931     -12.66786410     -24.04372855
Li       5.00695945       1.05508146       3.87053015       0.06000000      16.41754784      14.22745594      24.17439253
Li       4.34072065       3.91933885       3.90062885       0.01000000       1.29259280      -2.44327563      -4.58321918
Cl       1.93607855       5.03055032       3.99580582       0.12000000      -0.48704227      -0.68392141      -0.16669670
Cl       3.12782438       2.06623509       2.51364820      -0.13000000      28.77731382      86.64223658     126.39603716
Cl       2.90411783       1.41219847       1.55699763      -0.22000000     -29.04386419     -86.28563614    -126.67165968
Cl       0.73619794       3.08226959       1.31295411       0.13000000      -1.19434658       0.45487494      -0.29383107
8
Lattice="5.084239895140529 0.0 0.0 0.0 5.084239895140529 0.0 0.0 0.0 5.084239895140529" Properties=species:S:1:pos:R:3:initial_charges:R:1:forces:R:3 energy=-2488.077375667099 free_energy=-2488.077375667099 pbc="T T T"
Li       4.22220702       3.90876363       0.42148349      -0.06000000      -6.31077425       3.75457012       1.29675233
Li       0.23519694       0.55158919       3.09370913       0.08000000      -3.65791567      -6.98666457      -4.93258865
Li       0.71230201       1.43878905       3.63579079       0.01000000       3.34884181       7.28618266       5.67259817
Li       4.61201569       3.68765004       3.66777066      -0.00000000       0.07305301      -1.05284463      -1.49369832
Cl       2.05708346       4.07389974       3.13336620       0.01000000      -1.65071199      -5.57964944       4.16770449
Cl       2.84666592       1.55984480       2.67075122      -0.13000000     128.29151715     273.58587474     123.28153855
Cl       2.45009521       0.70604839       2.28983996      -0.12000000    -125.48277438    -267.43112608    -128.19023059
Cl       0.62332781       3.11602895       0.60060126       0.21000000       5.38876432      -3.57634253       0.19792378
8
Lattice="5.084239895140529 0.0 0.0 0.0 5.084239895140529 0.0 0.0 0.0 5.084239895140529" Properties=species:S:1:pos:R:3:initial_charges:R:1:forces:R:3 energy=-2488.077375667099 free_energy=-2488.077375667099 pbc="T T T"
Li       4.22220702       3.90876363       0.42148349      -0.06000000      -6.31077425       3.75457012       1.29675233
Li       0.23519694       0.55158919       3.09370913       0.08000000      -3.65791567      -6.98666457      -4.93258865
Li       0.71230201       1.43878905       3.63579079       0.01000000       3.34884181       7.28618266       5.67259817
Li       4.61201569       3.68765004       3.66777066      -0.00000000       0.07305301      -1.05284463      -1.49369832
Cl       2.05708346       4.07389974       3.13336620       0.01000000      -1.65071199      -5.57964944       4.16770449
Cl       2.84666592       1.55984480       2.67075122      -0.13000000     128.29151715     273.58587474     123.28153855
Cl       2.45009521       0.70604839       2.28983996      -0.12000000    -125.48277438    -267.43112608    -128.19023059
Cl       0.62332781       3.11602895       0.60060126       0.21000000       5.38876432      -3.57634253       0.19792378
8
Lattice="5.084239895140529 0.0 0.0 0.0 5.084239895140529 0.0 0.0 0.0 5.084239895140529" Properties=species:S:1:pos:R:3:initial_charges:R:1:forces:R:3 energy=-2488.077375667099 free_energy=-2488.077375667099 pbc="T T T"
Li       4.22220702       3.90876363       0.42148349      -0.06000000      -6.31077425       3.75457012       1.29675233
Li       0.23519694       0.55158919       3.09370913       0.08000000      -3.65791567      -6.98666457      -4.93258865
Li       0.71230201       1.43878905       3.63579079       0.01000000       3.34884181       7.28618266       5.67259817
Li       4.61201569       3.68765004       3.66777066      -0.00000000       0.07305301      -1.05284463      -1.49369832
Cl       2.05708346       4.07389974       3.13336620       0.01000000      -1.65071199      -5.57964944       4.16770449
Cl       2.84666592       1.55984480       2.67075122      -0.13000000     128.29151715     273.58587474     123.28153855
Cl       2.45009521       0.70604839       2.28983996      -0.12000000    -125.48277438    -267.43112608    -128.19023059
Cl       0.62332781       3.11602895       0.60060126       0.21000000       5.38876432      -3.57634253       0.19792378
8
Lattice="5.084239895140529 0.0 0.0 0.0 5.084239895140529 0.0 0.0 0.0 5.084239895140529" Properties=species:S:1:pos:R:3:initial_charges:R:1:forces:R:3 energy=-2382.5630927842913 free_energy=-2382.5630927842913 pbc="T T T"
Li       4.96730238       3.70132664       1.39308173      -0.12000000      -0.89486269       1.30593014      -2.23713589
Li       2.51974929       0.20031905       2.74243900      -0.30000000     244.78411359      74.30691022    -190.26270583
Li       3.08104938       2.58991180       2.93157272      -0.11000000       0.41668506      -0.38304655      -0.21504013
Li       0.34166092       2.99258360       2.96919610      -0.23000000      32.84748274    -161.03461258    -410.07666609
Cl       2.42009819       1.20394801       0.54604736       0.16000000       0.43045923       0.55293887      -0.07753162
Cl       2.00319052       0.04067392       3.14206026       0.32000000    -242.42825907     -71.22825175     187.13480637
Cl       1.08802734       3.67183805       4.48836698      -0.25000000      44.34869566      25.77757793      61.95042728
Cl       0.28471743       3.21730701       3.54778260       0.54000000     -79.50431427     130.70255397     353.78384616
8
Lattice="5.084239895140529 0.0 0.0 0.0 5.084239895140529 0.0 0.0 0.0 5.084239895140529" Properties=species:S:1:pos:R:3:initial_charges:R:1:forces:R:3 energy=-2461.540448808205 free_energy=-2461.540448808205 pbc="T T T"
Li       3.60853927       2.66414171       1.16683306      -0.21000000      32.47249865     -23.22777276      66.87885383
Li       3.77403127       3.52820828       0.98608833      -0.20000000     -31.62322985      50.61243570      49.11729164
Li       4.75630642       3.26128568       4.49472228      -0.30000000      43.34333416       2.41273940    -102.40312595
Li       4.41108653       4.60149132       4.56056319      -0.17000000      -0.20801587      15.37134282      -4.60543840
Cl       4.23517183       2.10690901       2.86217285      -0.09000000       7.07304360     -19.57613753      -0.11269711
Cl       2.87005342       2.61329931       0.41436555       0.18000000     -71.48048212     -19.25065644     -52.34649977
Cl       4.44616779       3.24806666       0.22828237       0.79000000      28.08682529     -25.03620265      44.63740818
Cl       3.67590544       3.72369730       3.03096961      -0.01000000      -7.66397387      18.69425172      -1.16579217
8
Lattice="5.084239895140529 0.0 0.0 0.0 5.084239895140529 0.0 0.0 0.0 5.084239895140529" Properties=species:S:1:pos:R:3:initial_charges:R:1:forces:R:3 energy=-2507.0213570219507 free_energy=-2507.0213570219507 pbc="T T T"
Li       4.85036486       2.31841339       2.78616346      -0.22000000      -2.80444337     -18.53964254    -124.09125992
Li       2.49737864       2.94275805       0.40063810      -0.10000000      -7.39983724     -11.91613498      12.42491413
Li       3.61997881       0.09558371       3.32102550      -0.16000000       8.95156228       3.75279400      -5.42358888
Li       0.68332184       3.44304726       3.39627225      -0.10000000      15.00714194      17.25001885      -1.09121012
Cl       4.84019638       2.40789601       3.63421468       0.49000000     -11.65669113      -0.79204376     123.10693082
Cl       1.46426109       0.08134784       1.19988062       0.15000000      -1.43480181       0.42752226       1.59786734
Cl       2.17605468       4.80155616       3.89249406      -0.07000000     -32.90027391      24.47848255     -16.35117764
Cl       3.11155482       3.89249406       4.55344525       0.01000000      32.23734324     -14.66099613       9.82752401
